Circuit: * Q:\2017\Shifter ETC\BPSC simulation\BSE.asc

WARNING: Less than two connections to node N008.  This node is used by A2.
Direct Newton iteration for .op point succeeded.

Date: Tue Nov 22 14:55:12 2016
Total elapsed time: 1.100 seconds.

tnom = 27
temp = 27
method = modified trap
totiter = 4632
traniter = 4593
tranpoints = 1783
accept = 1594
rejected = 189
matrix size = 56
fillins = 19
solver = Normal
Thread vector: 16.6/10.5[4] 5.5/2.5[4] 1.5/1.0[4] 0.2/0.6[1]  2592/500
Matrix Compiler1: 3.40 KB object code size  0.9/0.4/[0.3]
Matrix Compiler2: 5.30 KB object code size  0.5/0.6/[0.5]


